# generated using pymatgen
data_Al5Si43O96
_symmetry_space_group_name_H-M   'P 1'
_cell_length_a   18.25600000
_cell_length_b   20.53400000
_cell_length_c   7.54200000
_cell_angle_alpha   90.00000000
_cell_angle_beta   90.00000000
_cell_angle_gamma   90.00000000
_symmetry_Int_Tables_number   1
_chemical_formula_structural   Al5Si43O96
_chemical_formula_sum   'Al5 Si43 O96'
_cell_volume   2827.25976557
_cell_formula_units_Z   1
loop_
 _symmetry_equiv_pos_site_id
 _symmetry_equiv_pos_as_xyz
  1  'x, y, z'
loop_
 _atom_site_type_symbol
 _atom_site_label
 _atom_site_symmetry_multiplicity
 _atom_site_fract_x
 _atom_site_fract_y
 _atom_site_fract_z
 _atom_site_occupancy
  Si  T1  1  0.30570000  0.07360000  0.04350000  1
  Al  T1  1  0.80570000  0.57360000  0.04350000  1
  Si  T1  1  0.69430000  0.07360000  0.04350000  1
  Si  T1  1  0.19430000  0.57360000  0.04350000  1
  Si  T1  1  0.30570000  0.92640000  0.54350000  1
  Si  T1  1  0.80570000  0.42640000  0.54350000  1
  Al  T1  1  0.69430000  0.92640000  0.54350000  1
  Si  T1  1  0.19430000  0.42640000  0.54350000  1
  Si  T1  1  0.69430000  0.92640000  0.95650000  1
  Si  T1  1  0.19430000  0.42640000  0.95650000  1
  Si  T1  1  0.30570000  0.92640000  0.95650000  1
  Si  T1  1  0.80570000  0.42640000  0.95650000  1
  Si  T1  1  0.69430000  0.07360000  0.45650000  1
  Si  T1  1  0.19430000  0.57360000  0.45650000  1
  Si  T1  1  0.30570000  0.07360000  0.45650000  1
  Si  T1  1  0.80570000  0.57360000  0.45650000  1
  Al  T2  1  0.30280000  0.31060000  0.04370000  1
  Al  T2  1  0.80280000  0.81060000  0.04370000  1
  Si  T2  1  0.69720000  0.31060000  0.04370000  1
  Si  T2  1  0.19720000  0.81060000  0.04370000  1
  Si  T2  1  0.30280000  0.68940000  0.54370000  1
  Si  T2  1  0.80280000  0.18940000  0.54370000  1
  Si  T2  1  0.69720000  0.68940000  0.54370000  1
  Si  T2  1  0.19720000  0.18940000  0.54370000  1
  Si  T2  1  0.69720000  0.68940000  0.95630000  1
  Si  T2  1  0.19720000  0.18940000  0.95630000  1
  Si  T2  1  0.30280000  0.68940000  0.95630000  1
  Si  T2  1  0.80280000  0.18940000  0.95630000  1
  Si  T2  1  0.69720000  0.31060000  0.45630000  1
  Si  T2  1  0.19720000  0.81060000  0.45630000  1
  Si  T2  1  0.30280000  0.31060000  0.45630000  1
  Si  T2  1  0.80280000  0.81060000  0.45630000  1
  Si  T3  1  0.08480000  0.37910000  0.25000000  1
  Si  T3  1  0.58480000  0.87910000  0.25000000  1
  Si  T3  1  0.91520000  0.37910000  0.25000000  1
  Si  T3  1  0.41520000  0.87910000  0.25000000  1
  Si  T3  1  0.08480000  0.62090000  0.75000000  1
  Si  T3  1  0.58480000  0.12090000  0.75000000  1
  Si  T3  1  0.91520000  0.62090000  0.75000000  1
  Si  T3  1  0.41520000  0.12090000  0.75000000  1
  Si  T4  1  0.08480000  0.22270000  0.25000000  1
  Si  T4  1  0.58480000  0.72270000  0.25000000  1
  Al  T4  1  0.91520000  0.22270000  0.25000000  1
  Si  T4  1  0.41520000  0.72270000  0.25000000  1
  Si  T4  1  0.08480000  0.77730000  0.75000000  1
  Si  T4  1  0.58480000  0.27730000  0.75000000  1
  Si  T4  1  0.91520000  0.77730000  0.75000000  1
  Si  T4  1  0.41520000  0.27730000  0.75000000  1
  O  O1  1  0.28110000  0.00000000  0.00000000  1
  O  O1  1  0.78110000  0.50000000  0.00000000  1
  O  O1  1  0.71890000  0.00000000  0.00000000  1
  O  O1  1  0.21890000  0.50000000  0.00000000  1
  O  O1  1  0.28110000  0.00000000  0.50000000  1
  O  O1  1  0.78110000  0.50000000  0.50000000  1
  O  O1  1  0.71890000  0.00000000  0.50000000  1
  O  O1  1  0.21890000  0.50000000  0.50000000  1
  O  O2  1  0.32680000  0.07950000  0.25000000  1
  O  O2  1  0.82680000  0.57950000  0.25000000  1
  O  O2  1  0.67320000  0.07950000  0.25000000  1
  O  O2  1  0.17320000  0.57950000  0.25000000  1
  O  O2  1  0.32680000  0.92050000  0.75000000  1
  O  O2  1  0.82680000  0.42050000  0.75000000  1
  O  O2  1  0.67320000  0.92050000  0.75000000  1
  O  O2  1  0.17320000  0.42050000  0.75000000  1
  O  O3  1  0.37570000  0.09240000  0.92430000  1
  O  O3  1  0.87570000  0.59240000  0.92430000  1
  O  O3  1  0.62430000  0.09240000  0.92430000  1
  O  O3  1  0.12430000  0.59240000  0.92430000  1
  O  O3  1  0.37570000  0.90760000  0.42430000  1
  O  O3  1  0.87570000  0.40760000  0.42430000  1
  O  O3  1  0.62430000  0.90760000  0.42430000  1
  O  O3  1  0.12430000  0.40760000  0.42430000  1
  O  O3  1  0.62430000  0.90760000  0.07570000  1
  O  O3  1  0.12430000  0.40760000  0.07570000  1
  O  O3  1  0.37570000  0.90760000  0.07570000  1
  O  O3  1  0.87570000  0.40760000  0.07570000  1
  O  O3  1  0.62430000  0.09240000  0.57570000  1
  O  O3  1  0.12430000  0.59240000  0.57570000  1
  O  O3  1  0.37570000  0.09240000  0.57570000  1
  O  O3  1  0.87570000  0.59240000  0.57570000  1
  O  O4  1  0.23910000  0.12230000  0.99920000  1
  O  O4  1  0.73910000  0.62230000  0.99920000  1
  O  O4  1  0.76090000  0.12230000  0.99920000  1
  O  O4  1  0.26090000  0.62230000  0.99920000  1
  O  O4  1  0.23910000  0.87770000  0.49920000  1
  O  O4  1  0.73910000  0.37770000  0.49920000  1
  O  O4  1  0.76090000  0.87770000  0.49920000  1
  O  O4  1  0.26090000  0.37770000  0.49920000  1
  O  O4  1  0.76090000  0.87770000  0.00080000  1
  O  O4  1  0.26090000  0.37770000  0.00080000  1
  O  O4  1  0.23910000  0.87770000  0.00080000  1
  O  O4  1  0.73910000  0.37770000  0.00080000  1
  O  O4  1  0.76090000  0.12230000  0.50080000  1
  O  O4  1  0.26090000  0.62230000  0.50080000  1
  O  O4  1  0.23910000  0.12230000  0.50080000  1
  O  O4  1  0.73910000  0.62230000  0.50080000  1
  O  O5  1  0.32530000  0.30890000  0.25000000  1
  O  O5  1  0.82530000  0.80890000  0.25000000  1
  O  O5  1  0.67470000  0.30890000  0.25000000  1
  O  O5  1  0.17470000  0.80890000  0.25000000  1
  O  O5  1  0.32530000  0.69110000  0.75000000  1
  O  O5  1  0.82530000  0.19110000  0.75000000  1
  O  O5  1  0.67470000  0.69110000  0.75000000  1
  O  O5  1  0.17470000  0.19110000  0.75000000  1
  O  O6  1  0.25000000  0.25000000  0.00000000  1
  O  O6  1  0.75000000  0.75000000  0.00000000  1
  O  O6  1  0.75000000  0.25000000  0.00000000  1
  O  O6  1  0.25000000  0.75000000  0.00000000  1
  O  O6  1  0.25000000  0.75000000  0.50000000  1
  O  O6  1  0.75000000  0.25000000  0.50000000  1
  O  O6  1  0.75000000  0.75000000  0.50000000  1
  O  O6  1  0.25000000  0.25000000  0.50000000  1
  O  O7  1  0.37570000  0.30580000  0.92420000  1
  O  O7  1  0.87570000  0.80580000  0.92420000  1
  O  O7  1  0.62430000  0.30580000  0.92420000  1
  O  O7  1  0.12430000  0.80580000  0.92420000  1
  O  O7  1  0.37570000  0.69420000  0.42420000  1
  O  O7  1  0.87570000  0.19420000  0.42420000  1
  O  O7  1  0.62430000  0.69420000  0.42420000  1
  O  O7  1  0.12430000  0.19420000  0.42420000  1
  O  O7  1  0.62430000  0.69420000  0.07580000  1
  O  O7  1  0.12430000  0.19420000  0.07580000  1
  O  O7  1  0.37570000  0.69420000  0.07580000  1
  O  O7  1  0.87570000  0.19420000  0.07580000  1
  O  O7  1  0.62430000  0.30580000  0.57580000  1
  O  O7  1  0.12430000  0.80580000  0.57580000  1
  O  O7  1  0.37570000  0.30580000  0.57580000  1
  O  O7  1  0.87570000  0.80580000  0.57580000  1
  O  O8  1  0.00000000  0.40050000  0.25000000  1
  O  O8  1  0.50000000  0.90050000  0.25000000  1
  O  O8  1  0.00000000  0.59950000  0.75000000  1
  O  O8  1  0.50000000  0.09950000  0.75000000  1
  O  O9  1  0.09060000  0.30090000  0.25000000  1
  O  O9  1  0.59060000  0.80090000  0.25000000  1
  O  O9  1  0.90940000  0.30090000  0.25000000  1
  O  O9  1  0.40940000  0.80090000  0.25000000  1
  O  O9  1  0.09060000  0.69910000  0.75000000  1
  O  O9  1  0.59060000  0.19910000  0.75000000  1
  O  O9  1  0.90940000  0.69910000  0.75000000  1
  O  O9  1  0.40940000  0.19910000  0.75000000  1
  O  O10  1  0.00000000  0.20130000  0.25000000  1
  O  O10  1  0.50000000  0.70130000  0.25000000  1
  O  O10  1  0.00000000  0.79870000  0.75000000  1
  O  O10  1  0.50000000  0.29870000  0.75000000  1
